read_data	PE_nc64_cl64_NP99L.dat
  orthogonal box = (0 0 0) to (186.111 186.111 186.111)
  4195 atoms
  4032 bonds

# Dreiding potential information
neighbor	0.4 bin
neigh_modify	every 10 one 10000
bond_style      class2
bond_coeff	1 4.7 5.765  0.0 2.882

#####equi1_pair.py data
include pairfile
pair_style hybrid lj/cut 19.32 soft 10.0
pair_coeff * * lj/cut 1.130000 4.700000 9.870000

pair_coeff 1 1 lj/cut 1.130000 4.700000 5.280000
pair_coeff 2 2 lj/cut 1.130000 4.700000 5.280000
pair_coeff 3 3 lj/cut 1.130000 4.700000 5.280000
pair_coeff 4 4 lj/cut 1.130000 4.700000 5.280000
pair_coeff 5 5 lj/cut 1.130000 4.700000 5.280000
pair_coeff 6 6 lj/cut 1.130000 4.700000 5.280000
pair_coeff 7 7 lj/cut 1.130000 4.700000 5.280000
pair_coeff 8 8 lj/cut 1.130000 4.700000 5.280000
pair_coeff 9 9 lj/cut 1.130000 4.700000 5.280000
pair_coeff 10 10 lj/cut 1.130000 4.700000 5.280000
pair_coeff 11 11 lj/cut 1.130000 4.700000 5.280000
pair_coeff 12 12 lj/cut 1.130000 4.700000 5.280000
pair_coeff 13 13 lj/cut 1.130000 4.700000 5.280000
pair_coeff 14 14 lj/cut 1.130000 4.700000 5.280000
pair_coeff 15 15 lj/cut 1.130000 4.700000 5.280000
pair_coeff 16 16 lj/cut 1.130000 4.700000 5.280000
pair_coeff 17 17 lj/cut 1.130000 4.700000 5.280000
pair_coeff 18 18 lj/cut 1.130000 4.700000 5.280000
pair_coeff 19 19 lj/cut 1.130000 4.700000 5.280000
pair_coeff 20 20 lj/cut 1.130000 4.700000 5.280000
pair_coeff 21 21 lj/cut 1.130000 4.700000 5.280000
pair_coeff 22 22 lj/cut 1.130000 4.700000 5.280000
pair_coeff 23 23 lj/cut 1.130000 4.700000 5.280000
pair_coeff 24 24 lj/cut 1.130000 4.700000 5.280000
pair_coeff 25 25 lj/cut 1.130000 4.700000 5.280000
pair_coeff 26 26 lj/cut 1.130000 4.700000 5.280000
pair_coeff 27 27 lj/cut 1.130000 4.700000 5.280000
pair_coeff 28 28 lj/cut 1.130000 4.700000 5.280000
pair_coeff 29 29 lj/cut 1.130000 4.700000 5.280000
pair_coeff 30 30 lj/cut 1.130000 4.700000 5.280000
pair_coeff 31 31 lj/cut 1.130000 4.700000 5.280000
pair_coeff 32 32 lj/cut 1.130000 4.700000 5.280000
pair_coeff 33 33 lj/cut 1.130000 4.700000 5.280000
pair_coeff 34 34 lj/cut 1.130000 4.700000 5.280000
pair_coeff 35 35 lj/cut 1.130000 4.700000 5.280000
pair_coeff 36 36 lj/cut 1.130000 4.700000 5.280000
pair_coeff 37 37 lj/cut 1.130000 4.700000 5.280000
pair_coeff 38 38 lj/cut 1.130000 4.700000 5.280000
pair_coeff 39 39 lj/cut 1.130000 4.700000 5.280000
pair_coeff 40 40 lj/cut 1.130000 4.700000 5.280000
pair_coeff 41 41 lj/cut 1.130000 4.700000 5.280000
pair_coeff 42 42 lj/cut 1.130000 4.700000 5.280000
pair_coeff 43 43 lj/cut 1.130000 4.700000 5.280000
pair_coeff 44 44 lj/cut 1.130000 4.700000 5.280000
pair_coeff 45 45 lj/cut 1.130000 4.700000 5.280000
pair_coeff 46 46 lj/cut 1.130000 4.700000 5.280000
pair_coeff 47 47 lj/cut 1.130000 4.700000 5.280000
pair_coeff 48 48 lj/cut 1.130000 4.700000 5.280000
pair_coeff 49 49 lj/cut 1.130000 4.700000 5.280000
pair_coeff 50 50 lj/cut 1.130000 4.700000 5.280000
pair_coeff 51 51 lj/cut 1.130000 4.700000 5.280000
pair_coeff 52 52 lj/cut 1.130000 4.700000 5.280000
pair_coeff 53 53 lj/cut 1.130000 4.700000 5.280000
pair_coeff 54 54 lj/cut 1.130000 4.700000 5.280000
pair_coeff 55 55 lj/cut 1.130000 4.700000 5.280000
pair_coeff 56 56 lj/cut 1.130000 4.700000 5.280000
pair_coeff 57 57 lj/cut 1.130000 4.700000 5.280000
pair_coeff 58 58 lj/cut 1.130000 4.700000 5.280000
pair_coeff 59 59 lj/cut 1.130000 4.700000 5.280000
pair_coeff 60 60 lj/cut 1.130000 4.700000 5.280000
pair_coeff 61 61 lj/cut 1.130000 4.700000 5.280000
pair_coeff 62 62 lj/cut 1.130000 4.700000 5.280000
pair_coeff 63 63 lj/cut 1.130000 4.700000 5.280000
pair_coeff 64 64 lj/cut 1.130000 4.700000 5.280000

pair_coeff 65 65 lj/cut 0.282500 4.600000 10.000000
pair_coeff * 65 soft 0.5
fix PNP all adapt 1 pair soft a * 65 v_prefactor
####equi1_pair.py complete

#####################################################
# Equilibration Stage 1 (Langevin dynamics at 600 K)
velocity 	all create 600 1231
fix		1st all nve/limit 0.05
fix		2nd all langevin 600 600 10.0 904297
thermo_style	custom step temp press pe ke etotal epair ebond eangle edihed emol vol # NVT?
thermo          100
timestep	5
dump		1 all dcd  1000 minimization.dcd
run		50000
Step Temp Press PotEng KinEng TotEng E_pair E_bond E_angle E_dihed E_mol Volume
0          600    259.64432   -428.51231    7500.9104    7072.3981   -428.51232 3.0162629e-06            0            0 3.0162629e-06    6446331.4
Averages over the last 251 of 501 rows, steps 25000 to 50000:
Temp Press PotEng KinEng TotEng E_pair E_bond E_angle E_dihed E_mol Volume
597.789 2.81814 458.941 7473.26 7932.21 -1737.26 2196.2 0 0 2196.2 6.44633e+06
Loop time of 75.0698 on 1 procs for 50000 steps with 4195 atoms

Pair  time (%) = 9.48482 (12.6347)
Bond  time (%) = 6.30074 (8.39318)
Neigh time (%) = 13.7777 (18.3532)
Comm  time (%) = 1.4675 (1.95485)
Outpt time (%) = 0.304976 (0.406257)
Other time (%) = 43.7341 (58.2578)

unfix 1st
unfix 2nd
write_restart 	restart.minimization.dat
